data_generated_by_bilbao_crystallographic_server

_cell_length_a                   2.780000 
_cell_length_b                   2.780000 
_cell_length_c                   51.900002 
_cell_angle_alpha                90.000000 
_cell_angle_beta                 90.000000 
_cell_angle_gamma                120.000000        
_symmetry_space_group_name_H-M   'P3_2' 
_symmetry_Int_Tables_number      145 

loop_
_symmetry_equiv_pos_site_id
_symmetry_equiv_pos_as_xyz
1    'x,y,z'
2    '-y,x-y,z+2/3'
3    '-x+y,-x,z+1/3'

loop_
_atom_site_label 
_atom_site_type_symbol 
_atom_site_symmetry_multiplicity 
_atom_site_Wyckoff_symbol 
_atom_site_fract_x 
_atom_site_fract_y 
_atom_site_fract_z 
Li1  Li ? ?  0.00000  0.66667  0.08333
Li1002 Li ? ?  0.33333  0.33333  0.25000
Co1  Co ? ?  0.00000  0.66667  0.29333
Co1002 Co ? ?  0.00000  0.66667  0.87333
Co1003 Co ? ?  0.33333  0.33333  0.46000
Co1004 Co ? ?  0.33333  0.33333  0.04000
O1    O ? ?  0.00000  0.66667  0.22833
O1002  O ? ?  0.00000  0.66667  0.93833
O1003  O ? ?  0.33333  0.33333  0.39500
O1004  O ? ?  0.33333  0.33333  0.10500
O2    O ? ?  0.00000  0.66667  0.14333
O2002  O ? ?  0.00000  0.66667  0.02333
O2003  O ? ?  0.33333  0.33333  0.31000
O2004  O ? ?  0.33333  0.33333  0.19000
