data_generated_by_bilbao_crystallographic_server

_cell_length_a                   2.780000 
_cell_length_b                   2.780000 
_cell_length_c                   103.800003 
_cell_angle_alpha                90.000000 
_cell_angle_beta                 90.000000 
_cell_angle_gamma                120.000000        
_symmetry_space_group_name_H-M   'R3' 
_symmetry_Int_Tables_number      146 

loop_
_symmetry_equiv_pos_site_id
_symmetry_equiv_pos_as_xyz
1    'x,y,z'
2    '-y,x-y,z'
3    '-x+y,-x,z'
4    'x+2/3,y+1/3,z+1/3'
5    '-y+2/3,x-y+1/3,z+1/3'
6    '-x+y+2/3,-x+1/3,z+1/3'
7    'x+1/3,y+2/3,z+2/3'
8    '-y+1/3,x-y+2/3,z+2/3'
9    '-x+y+1/3,-x+2/3,z+2/3'

loop_
_atom_site_label 
_atom_site_type_symbol 
_atom_site_symmetry_multiplicity 
_atom_site_Wyckoff_symbol 
_atom_site_fract_x 
_atom_site_fract_y 
_atom_site_fract_z 
Li1  Li ? ?  0.00000  0.00000  0.62500
Li1002 Li ? ?  0.66667  0.33333  0.70833
Li1003 Li ? ?  0.33333  0.66667  0.79167
Li1004 Li ? ?  0.00000  0.00000  0.87500
Co1  Co ? ?  0.00000  0.00000  0.73000
Co1002 Co ? ?  0.00000  0.00000  0.52000
Co1003 Co ? ?  0.66667  0.33333  0.81333
Co1004 Co ? ?  0.66667  0.33333  0.60333
Co1005 Co ? ?  0.33333  0.66667  0.89667
Co1006 Co ? ?  0.33333  0.66667  0.68667
Co1007 Co ? ?  0.00000  0.00000  0.98000
Co1008 Co ? ?  0.00000  0.00000  0.77000
O1    O ? ?  0.00000  0.00000  0.69750
O1002  O ? ?  0.00000  0.00000  0.55250
O1003  O ? ?  0.66667  0.33333  0.78083
O1004  O ? ?  0.66667  0.33333  0.63583
O1005  O ? ?  0.33333  0.66667  0.86417
O1006  O ? ?  0.33333  0.66667  0.71917
O1007  O ? ?  0.00000  0.00000  0.94750
O1008  O ? ?  0.00000  0.00000  0.80250
O2    O ? ?  0.00000  0.00000  0.65500
O2002  O ? ?  0.00000  0.00000  0.59500
O2003  O ? ?  0.66667  0.33333  0.73833
O2004  O ? ?  0.66667  0.33333  0.67833
O2005  O ? ?  0.33333  0.66667  0.82167
O2006  O ? ?  0.33333  0.66667  0.76167
O2007  O ? ?  0.00000  0.00000  0.90500
O2008  O ? ?  0.00000  0.00000  0.84500
