data_generated_by_bilbao_crystallographic_server

_cell_length_a                   2.780000 
_cell_length_b                   2.780000 
_cell_length_c                   181.650009 
_cell_angle_alpha                90.000000 
_cell_angle_beta                 90.000000 
_cell_angle_gamma                120.000000        
_symmetry_space_group_name_H-M   'R32' 
_symmetry_Int_Tables_number      155 

loop_
_symmetry_equiv_pos_site_id
_symmetry_equiv_pos_as_xyz
1    'x,y,z'
2    '-y,x-y,z'
3    '-x+y,-x,z'
4    'y,x,-z'
5    'x-y,-y,-z'
6    '-x,-x+y,-z'
7    'x+2/3,y+1/3,z+1/3'
8    '-y+2/3,x-y+1/3,z+1/3'
9    '-x+y+2/3,-x+1/3,z+1/3'
10   'y+2/3,x+1/3,-z+1/3'
11   'x-y+2/3,-y+1/3,-z+1/3'
12   '-x+2/3,-x+y+1/3,-z+1/3'
13   'x+1/3,y+2/3,z+2/3'
14   '-y+1/3,x-y+2/3,z+2/3'
15   '-x+y+1/3,-x+2/3,z+2/3'
16   'y+1/3,x+2/3,-z+2/3'
17   'x-y+1/3,-y+2/3,-z+2/3'
18   '-x+1/3,-x+y+2/3,-z+2/3'

loop_
_atom_site_label 
_atom_site_type_symbol 
_atom_site_symmetry_multiplicity 
_atom_site_Wyckoff_symbol 
_atom_site_fract_x 
_atom_site_fract_y 
_atom_site_fract_z 
Li1  Li ? ?  0.00000  0.00000  0.00000
Li1002 Li ? ?  0.66667  0.33333  0.04762
Li1003 Li ? ?  0.33333  0.66667  0.09524
Li1004 Li ? ?  0.00000  0.00000  0.14286
Co1  Co ? ?  0.00000  0.00000  0.06000
Co1002 Co ? ?  0.66667  0.33333  0.10762
Co1003 Co ? ?  0.66667  0.33333  0.98762
Co1004 Co ? ?  0.33333  0.66667  0.15524
Co1005 Co ? ?  0.33333  0.66667  0.03524
Co1006 Co ? ?  0.00000  0.00000  0.20286
Co1007 Co ? ?  0.00000  0.00000  0.91714
O1    O ? ?  0.00000  0.00000  0.04143
O1002  O ? ?  0.66667  0.33333  0.08905
O1003  O ? ?  0.66667  0.33333  0.00619
O1004  O ? ?  0.33333  0.66667  0.13667
O1005  O ? ?  0.33333  0.66667  0.05381
O1006  O ? ?  0.00000  0.00000  0.18429
O1007  O ? ?  0.00000  0.00000  0.89857
O2    O ? ?  0.00000  0.00000  0.01714
O2002  O ? ?  0.66667  0.33333  0.06476
O2003  O ? ?  0.66667  0.33333  0.03048
O2004  O ? ?  0.33333  0.66667  0.11238
O2005  O ? ?  0.33333  0.66667  0.07809
O2006  O ? ?  0.00000  0.00000  0.16000
O2007  O ? ?  0.00000  0.00000  0.87429
