data_generated_by_bilbao_crystallographic_server

_cell_length_a                   5.560000 
_cell_length_b                   5.560000 
_cell_length_c                   25.950001 
_cell_angle_alpha                90.000000 
_cell_angle_beta                 90.000000 
_cell_angle_gamma                120.000000        
_symmetry_space_group_name_H-M   'R3' 
_symmetry_Int_Tables_number      146 

loop_
_symmetry_equiv_pos_site_id
_symmetry_equiv_pos_as_xyz
1    'x,y,z'
2    '-y,x-y,z'
3    '-x+y,-x,z'
4    'x+2/3,y+1/3,z+1/3'
5    '-y+2/3,x-y+1/3,z+1/3'
6    '-x+y+2/3,-x+1/3,z+1/3'
7    'x+1/3,y+2/3,z+2/3'
8    '-y+1/3,x-y+2/3,z+2/3'
9    '-x+y+1/3,-x+2/3,z+2/3'

loop_
_atom_site_label 
_atom_site_type_symbol 
_atom_site_symmetry_multiplicity 
_atom_site_Wyckoff_symbol 
_atom_site_fract_x 
_atom_site_fract_y 
_atom_site_fract_z 
Li1  Li ? ?  0.00000  0.00000  0.00000
Li1002 Li ? ?  0.16667  0.33333  0.33333
Co1  Co ? ?  0.00000  0.00000  0.42000
Co1002 Co ? ?  0.00000  0.00000  0.58000
Co1003 Co ? ?  0.16667  0.33333  0.75333
Co1004 Co ? ?  0.16667  0.33333  0.91333
O1    O ? ?  0.00000  0.00000  0.29000
O1002  O ? ?  0.00000  0.00000  0.71000
O1003  O ? ?  0.16667  0.33333  0.62333
O1004  O ? ?  0.16667  0.33333  0.04333
O2    O ? ?  0.00000  0.00000  0.12000
O2002  O ? ?  0.00000  0.00000  0.88000
O2003  O ? ?  0.16667  0.33333  0.45333
O2004  O ? ?  0.16667  0.33333  0.21333
