data_generated_by_bilbao_crystallographic_server

_cell_length_a                   2.780000 
_cell_length_b                   2.780000 
_cell_length_c                   207.600006 
_cell_angle_alpha                90.000000 
_cell_angle_beta                 90.000000 
_cell_angle_gamma                120.000000        
_symmetry_space_group_name_H-M   'R3m' 
_symmetry_Int_Tables_number      160 

loop_
_symmetry_equiv_pos_site_id
_symmetry_equiv_pos_as_xyz
1    'x,y,z'
2    '-y,x-y,z'
3    '-x+y,-x,z'
4    '-y,-x,z'
5    '-x+y,y,z'
6    'x,x-y,z'
7    'x+2/3,y+1/3,z+1/3'
8    '-y+2/3,x-y+1/3,z+1/3'
9    '-x+y+2/3,-x+1/3,z+1/3'
10   '-y+2/3,-x+1/3,z+1/3'
11   '-x+y+2/3,y+1/3,z+1/3'
12   'x+2/3,x-y+1/3,z+1/3'
13   'x+1/3,y+2/3,z+2/3'
14   '-y+1/3,x-y+2/3,z+2/3'
15   '-x+y+1/3,-x+2/3,z+2/3'
16   '-y+1/3,-x+2/3,z+2/3'
17   '-x+y+1/3,y+2/3,z+2/3'
18   'x+1/3,x-y+2/3,z+2/3'

loop_
_atom_site_label 
_atom_site_type_symbol 
_atom_site_symmetry_multiplicity 
_atom_site_Wyckoff_symbol 
_atom_site_fract_x 
_atom_site_fract_y 
_atom_site_fract_z 
Li1  Li ? ?  0.00000  0.00000  0.93750
Li1002 Li ? ?  0.33333  0.66667  0.97917
Li1003 Li ? ?  0.66667  0.33333  0.02083
Li1004 Li ? ?  0.00000  0.00000  0.06250
Li1005 Li ? ?  0.00000  0.00000  0.18750
Li1006 Li ? ?  0.00000  0.00000  0.43750
Li1007 Li ? ?  0.00000  0.00000  0.56250
Li1008 Li ? ?  0.00000  0.00000  0.81250
Co1  Co ? ?  0.00000  0.00000  0.99000
Co1002 Co ? ?  0.00000  0.00000  0.88500
Co1003 Co ? ?  0.33333  0.66667  0.03167
Co1004 Co ? ?  0.33333  0.66667  0.92667
Co1005 Co ? ?  0.66667  0.33333  0.07333
Co1006 Co ? ?  0.66667  0.33333  0.96833
Co1007 Co ? ?  0.00000  0.00000  0.11500
Co1008 Co ? ?  0.00000  0.00000  0.24000
Co1009 Co ? ?  0.00000  0.00000  0.49000
Co1010 Co ? ?  0.00000  0.00000  0.61500
Co1011 Co ? ?  0.00000  0.00000  0.86500
Co1012 Co ? ?  0.00000  0.00000  0.01000
Co1013 Co ? ?  0.33333  0.66667  0.05167
Co1014 Co ? ?  0.66667  0.33333  0.09333
Co1015 Co ? ?  0.00000  0.00000  0.13500
Co1016 Co ? ?  0.33333  0.66667  0.17667
O1    O ? ?  0.00000  0.00000  0.97375
O1002  O ? ?  0.00000  0.00000  0.90125
O1003  O ? ?  0.33333  0.66667  0.01542
O1004  O ? ?  0.33333  0.66667  0.94292
O1005  O ? ?  0.66667  0.33333  0.05708
O1006  O ? ?  0.66667  0.33333  0.98458
O1007  O ? ?  0.00000  0.00000  0.09875
O1008  O ? ?  0.00000  0.00000  0.22375
O1009  O ? ?  0.00000  0.00000  0.47375
O1010  O ? ?  0.00000  0.00000  0.59875
O1011  O ? ?  0.00000  0.00000  0.84875
O1012  O ? ?  0.00000  0.00000  0.02625
O1013  O ? ?  0.33333  0.66667  0.06792
O1014  O ? ?  0.66667  0.33333  0.10958
O1015  O ? ?  0.00000  0.00000  0.15125
O1016  O ? ?  0.33333  0.66667  0.19292
O2    O ? ?  0.00000  0.00000  0.95250
O2002  O ? ?  0.00000  0.00000  0.92250
O2003  O ? ?  0.33333  0.66667  0.99417
O2004  O ? ?  0.33333  0.66667  0.96417
O2005  O ? ?  0.66667  0.33333  0.03583
O2006  O ? ?  0.66667  0.33333  0.00583
O2007  O ? ?  0.00000  0.00000  0.07750
O2008  O ? ?  0.00000  0.00000  0.20250
O2009  O ? ?  0.00000  0.00000  0.45250
O2010  O ? ?  0.00000  0.00000  0.57750
O2011  O ? ?  0.00000  0.00000  0.82750
O2012  O ? ?  0.00000  0.00000  0.04750
O2013  O ? ?  0.33333  0.66667  0.08917
O2014  O ? ?  0.66667  0.33333  0.13083
O2015  O ? ?  0.00000  0.00000  0.17250
O2016  O ? ?  0.33333  0.66667  0.21417
