data_generated_by_bilbao_crystallographic_server

_cell_length_a                   2.815600 
_cell_length_b                   2.815600 
_cell_length_c                   98.379402 
_cell_angle_alpha                90.000000 
_cell_angle_beta                 90.000000 
_cell_angle_gamma                120.000000        
_symmetry_space_group_name_H-M   'R3' 
_symmetry_Int_Tables_number      146 

loop_
_symmetry_equiv_pos_site_id
_symmetry_equiv_pos_as_xyz
1    'x,y,z'
2    '-y,x-y,z'
3    '-x+y,-x,z'
4    'x+2/3,y+1/3,z+1/3'
5    '-y+2/3,x-y+1/3,z+1/3'
6    '-x+y+2/3,-x+1/3,z+1/3'
7    'x+1/3,y+2/3,z+2/3'
8    '-y+1/3,x-y+2/3,z+2/3'
9    '-x+y+1/3,-x+2/3,z+2/3'

loop_
_atom_site_label 
_atom_site_type_symbol 
_atom_site_symmetry_multiplicity 
_atom_site_Wyckoff_symbol 
_atom_site_fract_x 
_atom_site_fract_y 
_atom_site_fract_z 
Li1  Li ? ?  0.00000  0.00000  0.14286
Li1002 Li ? ?  0.66667  0.33333  0.19048
Li1003 Li ? ?  0.33333  0.66667  0.23810
Li1004 Li ? ?  0.00000  0.00000  0.28571
Li1005 Li ? ?  0.00000  0.00000  0.42857
Li1006 Li ? ?  0.00000  0.00000  0.71429
Li1007 Li ? ?  0.00000  0.00000  0.00000
Co1  Co ? ?  0.00000  0.00000  0.21429
Co1002 Co ? ?  0.00000  0.00000  0.07143
Co1003 Co ? ?  0.66667  0.33333  0.26190
Co1004 Co ? ?  0.66667  0.33333  0.11905
Co1005 Co ? ?  0.33333  0.66667  0.30952
Co1006 Co ? ?  0.33333  0.66667  0.16667
Co1007 Co ? ?  0.00000  0.00000  0.35714
O1    O ? ?  0.00000  0.00000  0.17710
O1002  O ? ?  0.00000  0.00000  0.10862
O1003  O ? ?  0.66667  0.33333  0.22472
O1004  O ? ?  0.66667  0.33333  0.15624
O1005  O ? ?  0.33333  0.66667  0.27233
O1006  O ? ?  0.33333  0.66667  0.20386
O1007  O ? ?  0.00000  0.00000  0.31995
O1008  O ? ?  0.00000  0.00000  0.46281
O1009  O ? ?  0.00000  0.00000  0.74853
O1010  O ? ?  0.00000  0.00000  0.03424
O1011  O ? ?  0.00000  0.00000  0.25147
O1012  O ? ?  0.66667  0.33333  0.29909
O1013  O ? ?  0.33333  0.66667  0.34671
O1014  O ? ?  0.00000  0.00000  0.39433
