data_generated_by_bilbao_crystallographic_server

_cell_length_a                   4.958756 
_cell_length_b                   2.815600 
_cell_length_c                   19.018879 
_cell_angle_alpha                90.000000 
_cell_angle_beta                 28.979345 
_cell_angle_gamma                90.000000        
_symmetry_space_group_name_H-M   'P2/m' 
_symmetry_Int_Tables_number      10 

loop_
_symmetry_equiv_pos_site_id
_symmetry_equiv_pos_as_xyz
1    'x,y,z'
2    '-x,y,-z'
3    '-x,-y,-z'
4    'x,-y,z'

loop_
_atom_site_label 
_atom_site_type_symbol 
_atom_site_symmetry_multiplicity 
_atom_site_Wyckoff_symbol 
_atom_site_fract_x 
_atom_site_fract_y 
_atom_site_fract_z 
Li1  Li ? ?  0.00000  0.00000  0.75000
Li1002 Li ? ?  0.00000  0.50000  0.50000
Li1003 Li ? ?  0.00000  0.50000  0.00000
Co1  Co ? ?  0.50000  0.00000  0.50000
Co1002 Co ? ?  0.50000  0.50000  0.25000
Co1003 Co ? ?  0.50000  0.00000  0.00000
O1    O ? ?  0.76032  0.00000  0.63016
O1002  O ? ?  0.76032  0.50000  0.38016
O1003  O ? ?  0.23968  0.50000  0.11984
O1004  O ? ?  0.23968  0.00000  0.86984
