data_generated_by_bilbao_crystallographic_server

_cell_length_a                   9.509439 
_cell_length_b                   2.815600 
_cell_length_c                   46.875530 
_cell_angle_alpha                90.000000 
_cell_angle_beta                 168.169891 
_cell_angle_gamma                90.000000        
_symmetry_space_group_name_H-M   'P2/m' 
_symmetry_Int_Tables_number      10 

loop_
_symmetry_equiv_pos_site_id
_symmetry_equiv_pos_as_xyz
1    'x,y,z'
2    '-x,y,-z'
3    '-x,-y,-z'
4    'x,-y,z'

loop_
_atom_site_label 
_atom_site_type_symbol 
_atom_site_symmetry_multiplicity 
_atom_site_Wyckoff_symbol 
_atom_site_fract_x 
_atom_site_fract_y 
_atom_site_fract_z 
Li1  Li ? ?  0.25000  0.00000  0.25000
Li1002 Li ? ?  0.75000  0.50000  0.25000
Li1003 Li ? ?  0.50000  0.50000  0.50000
Li1004 Li ? ?  0.00000  0.50000  0.00000
Li1005 Li ? ?  0.50000  0.00000  0.00000
Li1006 Li ? ?  0.00000  0.00000  0.50000
Co1  Co ? ?  0.37500  0.00000  0.12500
Co1002 Co ? ?  0.12500  0.00000  0.37500
Co1003 Co ? ?  0.87500  0.50000  0.12500
Co1004 Co ? ?  0.62500  0.50000  0.37500
O1    O ? ?  0.30992  0.00000  0.19008
O1002  O ? ?  0.19008  0.00000  0.30992
O1003  O ? ?  0.80992  0.50000  0.19008
O1004  O ? ?  0.69008  0.50000  0.30992
O1005  O ? ?  0.55992  0.50000  0.44008
O1006  O ? ?  0.05992  0.50000  0.94008
O1007  O ? ?  0.55992  0.00000  0.94008
O1008  O ? ?  0.05992  0.00000  0.44008
