data_generated_by_bilbao_crystallographic_server

_cell_length_a                   9.509439 
_cell_length_b                   2.815600 
_cell_length_c                   103.115402 
_cell_angle_alpha                90.000000 
_cell_angle_beta                 171.964081 
_cell_angle_gamma                90.000000        
_symmetry_space_group_name_H-M   'C2/m' 
_symmetry_Int_Tables_number      12 

loop_
_symmetry_equiv_pos_site_id
_symmetry_equiv_pos_as_xyz
1    'x,y,z'
2    '-x,y,-z'
3    '-x,-y,-z'
4    'x,-y,z'
5    'x+1/2,y+1/2,z'
6    '-x+1/2,y+1/2,-z'
7    '-x+1/2,-y+1/2,-z'
8    'x+1/2,-y+1/2,z'

loop_
_atom_site_label 
_atom_site_type_symbol 
_atom_site_symmetry_multiplicity 
_atom_site_Wyckoff_symbol 
_atom_site_fract_x 
_atom_site_fract_y 
_atom_site_fract_z 
Li1  Li ? ?  0.00000  0.00000  0.75000
Li1002 Li ? ?  0.66666  0.00000  0.08333
Li1003 Li ? ?  0.33333  0.00000  0.41667
Co1  Co ? ?  0.16667  0.00000  0.83333
Co1002 Co ? ?  0.16667  0.00000  0.33333
Co1003 Co ? ?  0.50000  0.00000  0.50000
Co1004 Co ? ?  0.00000  0.50000  0.00000
O1    O ? ?  0.07989  0.00000  0.78995
O1002  O ? ?  0.74656  0.00000  0.12328
O1003  O ? ?  0.25344  0.00000  0.37672
O1004  O ? ?  0.92011  0.00000  0.71005
O1005  O ? ?  0.41323  0.00000  0.45661
O1006  O ? ?  0.91323  0.50000  0.95661
