data_generated_by_bilbao_crystallographic_server

_cell_length_a                   2.815600 
_cell_length_b                   2.815600 
_cell_length_c                   56.216801 
_cell_angle_alpha                90.000000 
_cell_angle_beta                 90.000000 
_cell_angle_gamma                120.000000        
_symmetry_space_group_name_H-M   'R3' 
_symmetry_Int_Tables_number      146 

loop_
_symmetry_equiv_pos_site_id
_symmetry_equiv_pos_as_xyz
1    'x,y,z'
2    '-y,x-y,z'
3    '-x+y,-x,z'
4    'x+2/3,y+1/3,z+1/3'
5    '-y+2/3,x-y+1/3,z+1/3'
6    '-x+y+2/3,-x+1/3,z+1/3'
7    'x+1/3,y+2/3,z+2/3'
8    '-y+1/3,x-y+2/3,z+2/3'
9    '-x+y+1/3,-x+2/3,z+2/3'

loop_
_atom_site_label 
_atom_site_type_symbol 
_atom_site_symmetry_multiplicity 
_atom_site_Wyckoff_symbol 
_atom_site_fract_x 
_atom_site_fract_y 
_atom_site_fract_z 
Li1  Li ? ?  0.00000  0.00000  0.87500
Li1002 Li ? ?  0.66667  0.33333  0.95833
Li1003 Li ? ?  0.33333  0.66667  0.04167
Li1004 Li ? ?  0.00000  0.00000  0.12500
Co1  Co ? ?  0.00000  0.00000  0.00000
Co1002 Co ? ?  0.00000  0.00000  0.75000
Co1003 Co ? ?  0.66667  0.33333  0.83333
Co1004 Co ? ?  0.33333  0.66667  0.91667
O1    O ? ?  0.00000  0.00000  0.93492
O1002  O ? ?  0.00000  0.00000  0.81508
O1003  O ? ?  0.66667  0.33333  0.01825
O1004  O ? ?  0.66667  0.33333  0.89841
O1005  O ? ?  0.33333  0.66667  0.10159
O1006  O ? ?  0.33333  0.66667  0.98175
O1007  O ? ?  0.00000  0.00000  0.18492
O1008  O ? ?  0.00000  0.00000  0.06508
