data_generated_by_bilbao_crystallographic_server

_cell_length_a                   7.449377 
_cell_length_b                   7.449377 
_cell_length_c                   14.054200 
_cell_angle_alpha                90.000000 
_cell_angle_beta                 90.000000 
_cell_angle_gamma                120.000000        
_symmetry_space_group_name_H-M   'R3' 
_symmetry_Int_Tables_number      146 

loop_
_symmetry_equiv_pos_site_id
_symmetry_equiv_pos_as_xyz
1    'x,y,z'
2    '-y,x-y,z'
3    '-x+y,-x,z'
4    'x+2/3,y+1/3,z+1/3'
5    '-y+2/3,x-y+1/3,z+1/3'
6    '-x+y+2/3,-x+1/3,z+1/3'
7    'x+1/3,y+2/3,z+2/3'
8    '-y+1/3,x-y+2/3,z+2/3'
9    '-x+y+1/3,-x+2/3,z+2/3'

loop_
_atom_site_label 
_atom_site_type_symbol 
_atom_site_symmetry_multiplicity 
_atom_site_Wyckoff_symbol 
_atom_site_fract_x 
_atom_site_fract_y 
_atom_site_fract_z 
Li1  Li ? ?  0.14286  0.71429  0.00000
Li1002 Li ? ?  0.85714  0.28571  0.00000
Li1003 Li ? ?  0.00000  0.00000  0.00000
Co1  Co ? ?  0.14286  0.71429  0.50000
Co1002 Co ? ?  0.85714  0.28571  0.50000
Co1003 Co ? ?  0.00000  0.00000  0.50000
O1    O ? ?  0.14286  0.71429  0.23968
O1002  O ? ?  0.57143  0.85714  0.76032
O1003  O ? ?  0.85714  0.28571  0.76032
O1004  O ? ?  0.00000  0.00000  0.76032
O1005  O ? ?  0.71429  0.57143  0.23968
O1006  O ? ?  0.66667  0.33333  0.57301
