data_generated_by_bilbao_crystallographic_server

_cell_length_a                   11.375408 
_cell_length_b                   11.375408 
_cell_length_c                   7.200000 
_cell_angle_alpha                90.000000 
_cell_angle_beta                 90.000000 
_cell_angle_gamma                119.999992        
_symmetry_space_group_name_H-M   'P3' 
_symmetry_Int_Tables_number      143 

loop_
_symmetry_equiv_pos_site_id
_symmetry_equiv_pos_as_xyz
1    'x,y,z'
2    '-y,x-y,z'
3    '-x+y,-x,z'

loop_
_atom_site_label 
_atom_site_type_symbol 
_atom_site_symmetry_multiplicity 
_atom_site_Wyckoff_symbol 
_atom_site_fract_x 
_atom_site_fract_y 
_atom_site_fract_z 
Li1  Li ? ?  0.33333  0.66667  0.76388
Li1002 Li ? ?  0.04762  0.23809  0.76388
Li1003 Li ? ?  0.47619  0.38095  0.76388
Li1004 Li ? ?  0.23810  0.19048  0.23612
Li1005 Li ? ?  0.09524  0.47619  0.23612
Li1006 Li ? ?  0.66667  0.33333  0.23612
C1    C ? ?  0.38095  0.57143  0.00000
C1002  C ? ?  0.14286  0.38095  0.00000
C1003  C ? ?  0.33333  0.33333  0.00000
C1004  C ? ?  0.09524  0.14286  0.00000
C1005  C ? ?  0.57143  0.52381  0.00000
C1006  C ? ?  0.80953  0.71429  0.00000
C1007  C ? ?  0.52381  0.28572  0.00000
C2    C ? ?  0.52381  0.61905  0.00000
C2002  C ? ?  0.23809  0.19047  0.00000
C2003  C ? ?  0.04762  0.23810  0.00000
C2004  C ? ?  0.33333  0.66667  0.00000
C2005  C ? ?  0.47619  0.38095  0.00000
C2006  C ? ?  0.66667  0.33333  0.00000
C3    C ? ?  0.19048  0.61905  0.50000
C3002  C ? ?  0.09524  0.14286  0.50000
C3003  C ? ?  0.57143  0.52381  0.50000
C3004  C ? ?  0.28571  0.09524  0.50000
C3005  C ? ?  0.61905  0.76191  0.50000
C3006  C ? ?  0.33333  0.33333  0.50000
C3007  C ? ?  0.76191  0.47619  0.50000
C4    C ? ?  0.47619  0.71428  0.50000
C4002  C ? ?  0.00000  0.33334  0.50000
C4003  C ? ?  0.38095  0.23810  0.50000
C4004  C ? ?  0.19047  0.28571  0.50000
C4005  C ? ?  0.42858  0.47619  0.50000
C4006  C ? ?  0.90476  0.85714  0.50000
C4007  C ? ?  0.61904  0.42856  0.50000
C5    C ? ?  0.28571  0.42857  0.00000
C5002  C ? ?  0.00000  0.00000  0.00000
C5003  C ? ?  0.71428  0.57143  0.00000
