data_generated_by_bilbao_crystallographic_server

_cell_length_a                   4.299500 
_cell_length_b                   4.299500 
_cell_length_c                   21.599998 
_cell_angle_alpha                90.000000 
_cell_angle_beta                 90.000000 
_cell_angle_gamma                120.000000        
_symmetry_space_group_name_H-M   'P3_2' 
_symmetry_Int_Tables_number      145 

loop_
_symmetry_equiv_pos_site_id
_symmetry_equiv_pos_as_xyz
1    'x,y,z'
2    '-y,x-y,z+2/3'
3    '-x+y,-x,z+1/3'

loop_
_atom_site_label 
_atom_site_type_symbol 
_atom_site_symmetry_multiplicity 
_atom_site_Wyckoff_symbol 
_atom_site_fract_x 
_atom_site_fract_y 
_atom_site_fract_z 
Li1  Li ? ?  0.33333  0.66667  0.25463
Li1002 Li ? ?  0.66667  0.33333  0.74537
C1    C ? ?  0.33334  0.33333  0.00000
C1002  C ? ?  0.66667  0.00000  0.00000
C1003  C ? ?  0.00000  0.66666  0.00000
C2    C ? ?  0.66667  0.33333  0.00000
C2002  C ? ?  0.33333  0.66667  0.00000
C3    C ? ?  0.00000  0.66667  0.16667
C3002  C ? ?  0.33333  0.33333  0.16667
C3003  C ? ?  0.66667  0.00000  0.16667
C4    C ? ?  0.66665  0.66665  0.16667
C4002  C ? ?  0.33335  0.00000  0.16667
C4003  C ? ?  0.00000  0.33335  0.16667
C5    C ? ?  0.00000  0.00000  0.00000
