data_generated_by_bilbao_crystallographic_server

_cell_length_a                   4.299500 
_cell_length_b                   4.299500 
_cell_length_c                   43.199997 
_cell_angle_alpha                90.000000 
_cell_angle_beta                 90.000000 
_cell_angle_gamma                120.000000        
_symmetry_space_group_name_H-M   'P321' 
_symmetry_Int_Tables_number      150 

loop_
_symmetry_equiv_pos_site_id
_symmetry_equiv_pos_as_xyz
1    'x,y,z'
2    '-y,x-y,z'
3    '-x+y,-x,z'
4    'y,x,-z'
5    'x-y,-y,-z'
6    '-x,-x+y,-z'

loop_
_atom_site_label 
_atom_site_type_symbol 
_atom_site_symmetry_multiplicity 
_atom_site_Wyckoff_symbol 
_atom_site_fract_x 
_atom_site_fract_y 
_atom_site_fract_z 
Li1  Li ? ?  0.33333  0.66667  0.96065
Li1002 Li ? ?  0.66667  0.33333  0.70602
Li1003 Li ? ?  0.33333  0.66667  0.12731
Li1004 Li ? ?  0.33333  0.66667  0.46065
Li1005 Li ? ?  0.33333  0.66667  0.62731
Li1006 Li ? ?  0.33333  0.66667  0.79398
C1    C ? ?  0.33334  0.33333  0.83333
C1002  C ? ?  0.33334  0.33333  0.00000
C1003  C ? ?  0.33334  0.33333  0.33333
C1004  C ? ?  0.33334  0.33333  0.50000
C2    C ? ?  0.66667  0.33333  0.83333
C2002  C ? ?  0.33333  0.66667  0.83333
C2003  C ? ?  0.66667  0.33333  0.00000
C2004  C ? ?  0.66667  0.33333  0.33333
C2005  C ? ?  0.66667  0.33333  0.50000
C2006  C ? ?  0.66667  0.33333  0.66667
C3    C ? ?  0.00000  0.66667  0.91667
C3002  C ? ?  0.66667  0.00000  0.75000
C3003  C ? ?  0.00000  0.66667  0.41667
C4    C ? ?  0.66665  0.66665  0.91667
C4002  C ? ?  0.66665  0.66665  0.75000
C4003  C ? ?  0.66665  0.66665  0.41667
C5    C ? ?  0.00000  0.00000  0.83333
C5002  C ? ?  0.00000  0.00000  0.00000
C5003  C ? ?  0.00000  0.00000  0.33333
C5004  C ? ?  0.00000  0.00000  0.50000
