data_generated_by_bilbao_crystallographic_server

_cell_length_a                   12.898500 
_cell_length_b                   12.898500 
_cell_length_c                   21.599998 
_cell_angle_alpha                90.000000 
_cell_angle_beta                 90.000000 
_cell_angle_gamma                120.000000        
_symmetry_space_group_name_H-M   'R32' 
_symmetry_Int_Tables_number      155 

loop_
_symmetry_equiv_pos_site_id
_symmetry_equiv_pos_as_xyz
1    'x,y,z'
2    '-y,x-y,z'
3    '-x+y,-x,z'
4    'y,x,-z'
5    'x-y,-y,-z'
6    '-x,-x+y,-z'
7    'x+2/3,y+1/3,z+1/3'
8    '-y+2/3,x-y+1/3,z+1/3'
9    '-x+y+2/3,-x+1/3,z+1/3'
10   'y+2/3,x+1/3,-z+1/3'
11   'x-y+2/3,-y+1/3,-z+1/3'
12   '-x+2/3,-x+y+1/3,-z+1/3'
13   'x+1/3,y+2/3,z+2/3'
14   '-y+1/3,x-y+2/3,z+2/3'
15   '-x+y+1/3,-x+2/3,z+2/3'
16   'y+1/3,x+2/3,-z+2/3'
17   'x-y+1/3,-y+2/3,-z+2/3'
18   '-x+1/3,-x+y+2/3,-z+2/3'

loop_
_atom_site_label 
_atom_site_type_symbol 
_atom_site_symmetry_multiplicity 
_atom_site_Wyckoff_symbol 
_atom_site_fract_x 
_atom_site_fract_y 
_atom_site_fract_z 
Li1  Li ? ?  0.11111  0.22222  0.58796
Li1002 Li ? ?  0.22222  0.11111  0.07871
Li1003 Li ? ?  0.44444  0.22222  0.58796
C1    C ? ?  0.11111  0.11111  0.33333
C1002  C ? ?  0.44445  0.11111  0.33333
C1003  C ? ?  0.77778  0.11111  0.33333
C1004  C ? ?  0.11111  0.44444  0.33333
C1005  C ? ?  0.11111  0.77778  0.33333
C1006  C ? ?  0.11111  0.11111  0.00000
C2    C ? ?  0.22222  0.11111  0.33333
C2002  C ? ?  0.11111  0.22222  0.33333
C2003  C ? ?  0.55556  0.11111  0.33333
C3    C ? ?  0.00000  0.22222  0.50000
C3002  C ? ?  0.22222  0.00000  0.16667
C3003  C ? ?  0.33333  0.22222  0.50000
C3004  C ? ?  0.66667  0.22222  0.50000
C3005  C ? ?  0.00000  0.55556  0.50000
C3006  C ? ?  0.00000  0.88889  0.50000
C4    C ? ?  0.22222  0.22222  0.50000
C4002  C ? ?  0.22222  0.22222  0.16667
C4003  C ? ?  0.55555  0.22222  0.50000
C4004  C ? ?  0.88888  0.22222  0.50000
C4005  C ? ?  0.11112  0.00000  0.50000
C4006  C ? ?  0.55555  0.55555  0.50000
C5    C ? ?  0.00000  0.00000  0.33333
C5002  C ? ?  0.33333  0.00000  0.33333
C5003  C ? ?  0.66667  0.00000  0.33333
C5004  C ? ?  0.00000  0.00000  0.00000
