data_generated_by_bilbao_crystallographic_server

_cell_length_a                   7.446952 
_cell_length_b                   7.446952 
_cell_length_c                   43.199997 
_cell_angle_alpha                90.000000 
_cell_angle_beta                 90.000000 
_cell_angle_gamma                120.000000        
_symmetry_space_group_name_H-M   'R3' 
_symmetry_Int_Tables_number      146 

loop_
_symmetry_equiv_pos_site_id
_symmetry_equiv_pos_as_xyz
1    'x,y,z'
2    '-y,x-y,z'
3    '-x+y,-x,z'
4    'x+2/3,y+1/3,z+1/3'
5    '-y+2/3,x-y+1/3,z+1/3'
6    '-x+y+2/3,-x+1/3,z+1/3'
7    'x+1/3,y+2/3,z+2/3'
8    '-y+1/3,x-y+2/3,z+2/3'
9    '-x+y+1/3,-x+2/3,z+2/3'

loop_
_atom_site_label 
_atom_site_type_symbol 
_atom_site_symmetry_multiplicity 
_atom_site_Wyckoff_symbol 
_atom_site_fract_x 
_atom_site_fract_y 
_atom_site_fract_z 
Li1  Li ? ?  0.00000  0.33333  0.12731
Li1002 Li ? ?  0.00000  0.00000  0.87269
Li1003 Li ? ?  0.33333  0.66667  0.87269
Li1004 Li ? ?  0.66667  0.33333  0.87269
Li1005 Li ? ?  0.00000  0.33333  0.29398
Li1006 Li ? ?  0.00000  0.00000  0.03935
Li1007 Li ? ?  0.33333  0.66667  0.03935
Li1008 Li ? ?  0.66667  0.33333  0.03935
C1    C ? ?  0.88889  0.11111  0.00000
C1002  C ? ?  0.55556  0.11112  0.00000
C1003  C ? ?  0.55555  0.77778  0.00000
C1004  C ? ?  0.88889  0.11111  0.16667
C1005  C ? ?  0.88889  0.11111  0.50000
C1006  C ? ?  0.88889  0.11111  0.83333
C2    C ? ?  0.00000  0.00000  0.00000
C2002  C ? ?  0.66667  0.33333  0.00000
C2003  C ? ?  0.33333  0.66667  0.00000
C2004  C ? ?  0.00000  0.33333  0.00000
C2005  C ? ?  0.00000  0.00000  0.16667
C2006  C ? ?  0.00000  0.00000  0.50000
C2007  C ? ?  0.00000  0.00000  0.83333
C2008  C ? ?  0.00000  0.33333  0.16667
C3    C ? ?  0.88889  0.44444  0.08333
C3002  C ? ?  0.22222  0.77778  0.08333
C3003  C ? ?  0.88889  0.77778  0.08333
C3004  C ? ?  0.88889  0.77778  0.91667
C3005  C ? ?  0.22222  0.77778  0.91667
C3006  C ? ?  0.88889  0.44444  0.91667
C4    C ? ?  0.11110  0.22222  0.08333
C4002  C ? ?  0.44445  0.22222  0.08333
C4003  C ? ?  0.44445  0.55557  0.08333
C4004  C ? ?  0.11110  0.22222  0.91667
C4005  C ? ?  0.44445  0.55557  0.91667
C4006  C ? ?  0.44445  0.22222  0.91667
C5    C ? ?  0.66667  0.00000  0.00000
C5002  C ? ?  0.66667  0.00000  0.16667
