data_generated_by_bilbao_crystallographic_server

_cell_length_a                   11.438360 
_cell_length_b                   11.438360 
_cell_length_c                   3.745368 
_cell_angle_alpha                90.000000 
_cell_angle_beta                 90.000000 
_cell_angle_gamma                119.999992        
_symmetry_space_group_name_H-M   'P6/m' 
_symmetry_Int_Tables_number      175 

loop_
_symmetry_equiv_pos_site_id
_symmetry_equiv_pos_as_xyz
1    'x,y,z'
2    '-y,x-y,z'
3    '-x+y,-x,z'
4    '-x,-y,z'
5    'y,-x+y,z'
6    'x-y,x,z'
7    '-x,-y,-z'
8    'y,-x+y,-z'
9    'x-y,x,-z'
10   'x,y,-z'
11   '-y,x-y,-z'
12   '-x+y,-x,-z'

loop_
_atom_site_label 
_atom_site_type_symbol 
_atom_site_symmetry_multiplicity 
_atom_site_Wyckoff_symbol 
_atom_site_fract_x 
_atom_site_fract_y 
_atom_site_fract_z 
Li1  Li ? ?  0.71429  0.57143  0.00000
Li1002 Li ? ?  0.00000  0.00000  0.00000
C2    C ? ?  0.66664  0.66673  0.50000
C2002  C ? ?  0.61899  0.42848  0.50000
C2003  C ? ?  0.85724  0.61908  0.50000
C2004  C ? ?  0.76194  0.47613  0.50000
C2005  C ? ?  0.80959  0.71438  0.50000
C2006  C ? ?  0.57134  0.52378  0.50000
C2007  C ? ?  0.85705  0.95235  0.50000
