data_generated_by_bilbao_crystallographic_server

_cell_length_a                   4.323294 
_cell_length_b                   4.323294 
_cell_length_c                   22.472206 
_cell_angle_alpha                90.000000 
_cell_angle_beta                 90.000000 
_cell_angle_gamma                120.000000        
_symmetry_space_group_name_H-M   'P6_3cm' 
_symmetry_Int_Tables_number      185 

loop_
_symmetry_equiv_pos_site_id
_symmetry_equiv_pos_as_xyz
1    'x,y,z'
2    '-y,x-y,z'
3    '-x+y,-x,z'
4    '-x,-y,z+1/2'
5    'y,-x+y,z+1/2'
6    'x-y,x,z+1/2'
7    '-y,-x,z+1/2'
8    '-x+y,y,z+1/2'
9    'x,x-y,z+1/2'
10   'y,x,z'
11   'x-y,-y,z'
12   '-x,-x+y,z'

loop_
_atom_site_label 
_atom_site_type_symbol 
_atom_site_symmetry_multiplicity 
_atom_site_Wyckoff_symbol 
_atom_site_fract_x 
_atom_site_fract_y 
_atom_site_fract_z 
Li1  Li ? ?  0.00000  0.00000  0.58333
Li1002 Li ? ?  0.00000  0.00000  0.75000
Li1003 Li ? ?  0.00000  0.00000  0.91667
C2    C ? ?  0.00000  0.33355  0.66667
C2002  C ? ?  0.00000  0.66645  0.66667
C2003  C ? ?  0.33355  0.00000  0.50000
C2004  C ? ?  0.66645  0.00000  0.50000
C2005  C ? ?  0.00000  0.33355  0.83333
C2006  C ? ?  0.00000  0.33355  0.33333
