data_generated_by_bilbao_crystallographic_server

_cell_length_a                   12.969881 
_cell_length_b                   12.969881 
_cell_length_c                   3.745368 
_cell_angle_alpha                90.000000 
_cell_angle_beta                 90.000000 
_cell_angle_gamma                120.000000        
_symmetry_space_group_name_H-M   'P-6' 
_symmetry_Int_Tables_number      174 

loop_
_symmetry_equiv_pos_site_id
_symmetry_equiv_pos_as_xyz
1    'x,y,z'
2    '-y,x-y,z'
3    '-x+y,-x,z'
4    'x,y,-z'
5    '-y,x-y,-z'
6    '-x+y,-x,-z'

loop_
_atom_site_label 
_atom_site_type_symbol 
_atom_site_symmetry_multiplicity 
_atom_site_Wyckoff_symbol 
_atom_site_fract_x 
_atom_site_fract_y 
_atom_site_fract_z 
Li1  Li ? ?  0.22222  0.77778  0.00000
Li1002 Li ? ?  0.55556  0.11111  0.00000
Li1003 Li ? ?  0.88889  0.77778  0.00000
C2    C ? ?  0.11104  0.77778  0.50000
C2002  C ? ?  0.22222  0.66659  0.50000
C2003  C ? ?  0.33341  0.88896  0.50000
C2004  C ? ?  0.33341  0.77778  0.50000
C2005  C ? ?  0.22222  0.88896  0.50000
C2006  C ? ?  0.11104  0.66659  0.50000
C2007  C ? ?  0.44437  0.11111  0.50000
C2008  C ? ?  0.77770  0.44444  0.50000
C2009  C ? ?  0.77770  0.77778  0.50000
C2010  C ? ?  0.55556  0.00000  0.50000
C2011  C ? ?  0.66674  0.11111  0.50000
C2012  C ? ?  0.55556  0.22229  0.50000
C2013  C ? ?  0.44437  0.00000  0.50000
C2014  C ? ?  0.11104  0.11111  0.50000
C2015  C ? ?  0.77770  0.11111  0.50000
C2016  C ? ?  0.00000  0.77778  0.50000
C2017  C ? ?  0.88889  0.88896  0.50000
C2018  C ? ?  0.77770  0.66659  0.50000
